/*--------------------------------*- C++ -*----------------------------------*\
|       o          |                                                          |
|    o     o       | HELYX-OS                                                  |
|   o   O   o      | Version: v2.1.1                                           |
|    o     o       | Web:     http://www.engys.com                            |
|       o          |                                                          |
\*---------------------------------------------------------------------------*/
FoamFile
{
    version 2.0;
    format ascii;
    class dictionary;
    location system;
    object snappyHexMeshDict;
}

    castellatedMesh true;
    snap true;
    addLayers true;
    geometry
    {
    }

    castellatedMeshControls
    {
        features
        (
        );
        refinementSurfaces
        {
        }

        refinementRegions
        {
        }

        locationInMesh ( 0 0 0);
        maxLocalCells 1000000;
        maxGlobalCells 2000000;
        minRefinementCells 0;
        nCellsBetweenLevels 1;
        resolveFeatureAngle 30;
        allowFreeStandingZoneFaces false;
    }

    snapControls
    {
        nSolveIter 300;
        nSmoothPatch 3;
        tolerance 1.0;
        nRelaxIter 5;
        nFeatureSnapIter 10;
        implicitFeatureSnap false;
        explicitFeatureSnap true;
        multiRegionFeatureSnap false;
    }

    addLayersControls
    {
        layers
        {
        }

        relativeSizes true;
        expansionRatio 1.0;
        finalLayerThickness 0.3;
        minThickness 0.2;
        nGrow 0;
        featureAngle 60;
        slipFeatureAngle 30;
        nRelaxIter 3;
        nSmoothSurfaceNormals 1;
        nSmoothNormals 3;
        nSmoothThickness 10;
        maxFaceThicknessRatio 0.5;
        maxThicknessToMedialRatio 0.3;
        minMedianAxisAngle 90;
        nBufferCellsNoExtrude 0;
        nLayerIter 50;
        nRelaxedIter 20;
        writeVTK false;
        noErrors false;
        layerRecovery 1;
        growZoneLayers false;
        projectGrownUp 0.0;
    }

    meshQualityControls
    {
        maxNonOrtho 65;
        maxBoundarySkewness 20;
        maxInternalSkewness 4;
        maxConcave 80;
        minFlatness 0.5;
        minVol 1.00E-13;
        minTetQuality -1e30;
        minArea -1;
        minTwist 0.02;
        minDeterminant 0.001;
        minFaceWeight 0.02;
        minVolRatio 0.01;
        minTriangleTwist -1;
        nSmoothScale 4;
        errorReduction 0.75;
    }

    debug 0;
    mergeTolerance 1E-6;
    autoBlockMesh false;